68

C -1.753428 0.323379 2.545874
O -1.934167 0.317914 1.766577
C -1.517706 -0.393626 2.559693
O -1.495328 0.044937 1.890992
C -1.443031 -1.010854 2.278565
O -1.213060 -0.331837 1.923533
C -1.387273 -1.395970 1.634617
O -1.078298 -0.660301 1.692281
C -1.310246 -1.353737 0.805027
O -0.876875 -0.972810 1.359180
C -1.037199 -1.021227 0.129979
O -0.686643 -0.981679 0.847995
C -0.594535 -1.037289 -0.405317
O 0.135645 -0.964363 -0.086695
C -0.430354 -0.400999 -1.296803
O -0.103726 -0.342711 -0.568849
C -0.632114 0.041935 -1.310867
O -0.234347 0.457699 -0.755060
C -0.517891 1.021727 -1.524179
O 0.097303 1.197454 -1.043912
C 0.240566 0.823094 -1.934270
O 0.749618 0.279365 -2.226202
C 0.712809 1.226119 -2.338569
O 0.756507 0.464242 -2.578639
C 1.218312 1.573212 -2.579531
O 1.151072 0.813266 -2.820279
C 1.396371 1.505113 -1.940189
O 1.783148 0.805663 -1.905948
C 0.683941 1.227247 -1.641092
O 1.440698 0.993059 -1.529397
C 0.367493 0.538352 -1.588898
O 1.101569 0.638738 -1.287143
C 0.534696 -0.333966 -1.373368
O 0.932780 0.262438 -1.018641
C 0.720161 -0.877168 -0.983533
O 0.655311 -0.162141 -0.630645
C 0.916895 -1.288530 -0.270351
O 0.622169 -0.544798 -0.270062
C 1.189368 -1.227900 0.357279
O 0.499478 -0.903816 0.114336
C 1.139449 -1.075115 0.937316
O 0.470082 -1.095026 0.499650
C 0.567580 -1.163551 1.559237
O 0.289666 -0.865551 0.870790
C 0.269946 -0.904521 2.079179
O -0.045955 -0.773579 1.355950
C 0.037564 -0.104112 1.966311
O -0.447016 -0.635362 1.615661
C -0.447981 0.456972 1.634966
O -0.719835 -0.279021 1.791199
C -0.872129 0.618085 1.238065
O -1.050844 -0.005416 1.706368
C -1.324688 0.436777 0.771861
O -1.469974 0.130234 1.496377
C -1.501719 0.392121 0.031852
O -0.847155 0.763270 -0.239798
C -0.815140 0.268041 0.017340
O -0.438990 0.859114 -0.368850
C -0.261448 -0.074561 0.061547
O 0.171819 -0.596869 0.485190
C 0.096229 0.556701 0.010062
O 0.416659 -0.165054 -0.117980
C 0.628249 0.956534 -0.152924
O 0.643653 0.210055 -0.440207
C 1.392288 1.171250 -0.383033
O 1.057498 0.570427 -0.791600
C 1.996735 1.172859 -0.609553
O 1.405771 0.826064 -1.022462
68

C -2.024967 0.031034 2.310919
O -1.944692 -0.009275 1.515978
C -1.520586 -0.558154 2.264225
O -1.572588 -0.036033 1.660333
C -1.195401 -1.040666 1.957326
O -1.214494 -0.308809 1.634804
C -1.142026 -1.369074 1.328545
O -0.875982 -0.616572 1.382965
C -0.904481 -1.366096 0.632998
O -0.592349 -0.930976 1.227342
C -0.552128 -0.827757 0.225878
O -0.090494 -1.064977 0.834665
C -0.803822 -1.049716 -0.261857
O -0.015094 -0.934949 -0.330684
C -0.841008 -0.035463 -0.716174
O -0.935279 -0.232845 0.053341
C -0.781109 0.051059 -1.237349
O -0.456394 0.440449 -0.618531
C -0.439433 0.885250 -1.431901
O 0.151119 1.420576 -1.363527
C 0.117947 0.525008 -1.792012
O 0.666959 -0.002971 -2.036601
C 0.771907 0.766145 -2.260166
O 0.906742 0.117552 -2.708661
C 1.299471 1.104652 -2.469746
O 1.249156 0.322325 -2.629220
C 1.631601 1.111522 -2.013593
O 2.225144 0.581931 -1.928508
C 0.949985 0.985698 -1.667665
O 1.601685 0.883175 -1.215143
C 0.434143 0.511080 -1.400392
O 1.062625 0.697269 -0.941759
C 0.379008 -0.142327 -1.145473
O 0.810524 0.371436 -0.709765
C 0.532602 -0.786554 -1.018073
O 0.711171 -0.172745 -0.537082
C 0.906772 -1.332670 -0.364357
O 0.512137 -0.641862 -0.280411
C 1.096051 -1.227907 0.312485
O 0.384790 -0.942926 0.082499
C 0.994186 -0.813552 0.902295
O 0.371308 -1.084943 0.479957
C 0.478926 -1.020485 1.533325
O 0.081908 -0.561258 1.012280
C 0.437442 -0.357351 1.911385
O -0.110404 -0.448147 1.335521
C -0.109845 -0.121196 1.727190
O -0.392280 -0.634933 1.182852
C -0.494570 0.530960 1.546316
O -0.745571 -0.225231 1.474396
C -0.995252 0.696124 1.061338
O -1.089212 0.065182 1.544126
C -1.498008 0.485071 0.621162
O -1.458318 0.111404 1.327419
C -1.736093 0.763938 -0.050582
O -1.174620 1.230673 -0.377548
C -1.034007 0.354692 -0.488143
O -0.758661 0.998752 -0.874629
C -0.560210 0.566180 0.342975
O -0.094880 -0.045537 0.564944
C 0.313339 0.289709 0.372378
O 0.977009 -0.116361 0.186235
C 0.833401 0.881885 0.121798
O 0.817452 0.189443 -0.278540
C 1.600555 1.063737 0.004961
O 1.116400 0.580364 -0.409700
C 2.247271 0.724380 -0.440643
O 1.483522 0.721663 -0.678718
68

C -1.986135 -0.208225 1.786246
O -1.970625 -0.154517 0.988201
C -1.478382 -0.574509 1.964837
O -1.552617 -0.139854 1.297330
C -1.057739 -1.112919 1.756842
O -1.070972 -0.411158 1.372972
C -0.870291 -1.439549 1.210139
O -0.715930 -0.655840 1.254561
C -0.613720 -1.275331 0.576459
O -0.224051 -0.884231 1.155422
C -0.297140 -0.792735 0.111048
O 0.020444 -1.009005 0.812737
C -0.779854 -0.619124 -0.151945
O -0.046854 -0.618671 -0.472431
C -1.261747 0.156610 -0.407678
O -1.788696 -0.118062 0.127935
C -0.755937 0.302187 -0.893198
O -0.477210 0.376058 -0.146971
C -0.734530 0.355206 -1.824313
O -0.281301 0.918748 -2.166371
C -0.151101 0.222774 -2.167666
O 0.438888 -0.316995 -2.191383
C 0.540861 0.264619 -2.064933
O 0.274127 -0.348193 -2.504607
C 1.152512 0.697842 -2.198173
O 1.677090 0.196526 -2.535069
C 1.534706 0.829353 -1.510650
O 2.288913 0.564155 -1.481628
C 1.235758 0.318682 -1.468947
O 1.784259 0.197284 -0.899378
C 0.583521 0.486622 -1.221137
O 1.240722 0.451947 -0.766291
C 0.358415 -0.198585 -0.975713
O 0.870517 0.268406 -0.576124
C 0.641345 -0.881681 -0.716162
O 0.750815 -0.179343 -0.349097
C 1.263592 -1.081449 -0.151227
O 0.651988 -0.582485 -0.020937
C 1.250124 -1.245836 0.627147
O 0.669572 -0.782682 0.329747
C 1.079054 -0.847829 1.367778
O 0.525061 -0.863031 0.790836
C 0.321519 -0.704850 1.090547
O -0.191567 -0.381210 0.569011
C 0.469527 0.057323 1.310637
O -0.318626 -0.010552 1.191443
C 0.057951 0.165939 1.699926
O -0.248055 -0.447129 1.287000
C -0.543617 0.472413 1.477425
O -0.670508 -0.290992 1.274667
C -1.035608 0.716651 0.981902
O -1.073683 -0.058349 1.176646
C -1.498946 0.708477 0.462579
O -1.543859 0.165324 1.048213
C -1.637174 1.325814 -0.084352
O -1.276468 1.859875 -0.558345
C -0.907467 0.931827 -0.365264
O -0.985531 1.611657 -0.779677
C -0.310527 0.891231 -0.063637
O -0.135593 0.168272 0.230860
C 0.354538 0.395368 0.514389
O 0.462360 -0.235183 0.033993
C 0.941063 0.861869 0.388947
O 0.746351 0.232380 -0.064740
C 1.554233 0.861013 0.227970
O 1.112757 0.466297 -0.309894
C 2.063214 0.521103 0.111153
O 1.576260 0.450251 -0.519606
68

C -2.105587 -0.106808 1.594384
O -1.757508 0.067614 0.895515
C -1.593482 -0.558373 1.776657
O -1.385936 -0.029729 1.213221
C -1.144190 -1.050263 1.561822
O -0.989379 -0.280792 1.407071
C -0.661346 -1.418399 1.056608
O -0.669612 -0.663348 1.320861
C -0.352926 -1.318283 0.408710
O -0.305690 -0.783826 1.002111
C -0.318672 -0.959392 -0.064502
O 0.043710 -0.794093 0.629296
C -0.481448 -0.424958 -0.050536
O -0.046974 -0.570186 -0.706388
C -1.253086 0.307955 -0.248136
O -2.045697 0.203915 -0.217412
C -1.036962 0.537571 -0.925744
O -0.728673 0.219541 -0.259549
C -0.542044 0.336954 -1.578684
O -0.714050 0.719161 -2.260103
C -0.075419 -0.545066 -1.836660
O 0.503440 -0.962080 -1.474690
C 0.409335 -0.075808 -2.306471
O -0.116391 -0.236237 -2.887741
C 1.061405 -0.026242 -2.368882
O 1.743443 0.073880 -2.774836
C 1.249272 0.333530 -1.833125
O 2.027286 0.488037 -1.729093
C 1.402209 0.164853 -1.052380
O 1.875700 -0.083809 -0.457424
C 0.758752 0.592791 -1.080039
O 1.263312 0.611588 -0.459502
C 0.621447 -0.245898 -0.960718
O 0.908728 0.239182 -0.393121
C 0.863004 -0.891108 -0.566936
O 0.647551 -0.192093 -0.242965
C 0.967770 -1.307053 0.009613
O 0.603441 -0.594888 0.018903
C 1.012203 -1.224451 0.756799
O 0.355240 -1.203895 0.300754
C 0.759006 -0.949210 1.308136
O 0.245642 -1.202646 0.749362
C 0.763032 -0.594739 0.695274
O 0.009038 -0.338111 0.620211
C 0.637328 0.072800 0.991613
O -0.089479 -0.259817 1.025056
C 0.061569 0.360901 1.464618
O -0.280118 -0.356894 1.375061
C -0.441657 0.828365 1.444961
O -0.573412 0.039769 1.472450
C -0.846467 0.859543 0.897116
O -0.927509 0.145540 1.248729
C -1.111347 0.656443 0.269751
O -1.327454 0.261821 0.931242
C -1.309078 1.244211 0.147976
O -1.326533 1.822144 -0.404915
C -0.600891 1.483678 -0.088778
O -0.960687 2.091983 -0.463627
C -0.369279 0.987122 -0.167766
O -0.514419 0.257033 0.125328
C 0.197749 0.670821 0.440446
O 0.269139 0.020598 -0.020113
C 0.785148 1.018943 0.415061
O 0.610769 0.380196 -0.033932
C 1.611514 0.807252 0.446638
O 1.098710 0.500675 -0.085380
C 2.172654 0.362247 0.166308
O 1.464855 0.479841 -0.187517
68

C -1.943559 0.174601 1.457066
O -1.627201 0.166492 0.722320
C -1.580392 -0.449190 1.680664
O -1.293771 0.058831 1.133157
C -0.980249 -0.837649 1.625333
O -0.893126 -0.156721 1.214545
C -0.790070 -1.208267 1.026825
O -0.546988 -0.462209 1.182735
C -0.597598 -1.417614 0.429127
O -0.326517 -0.802546 0.862955
C -0.555406 -1.181947 -0.263675
O -0.186520 -0.857580 0.367759
C -0.633893 -0.587696 -0.395701
O -0.541462 -0.748924 -1.173815
C -0.999667 0.060475 -0.781667
O -1.678448 0.370333 -1.070188
C -0.866751 0.606748 -0.883400
O -0.798262 0.174591 -0.213662
C -0.401233 0.092804 -1.303546
O -0.877256 -0.094728 -1.918553
C 0.026111 -0.627742 -1.635119
O 0.339393 -1.072228 -1.048361
C -0.031630 -0.165466 -2.299694
O -0.344926 0.012636 -3.013924
C 0.833158 -0.867393 -2.253512
O 1.142149 -0.198622 -2.565392
C 1.175859 -0.410040 -1.857004
O 1.746290 0.142806 -1.951712
C 1.408862 0.101511 -1.449356
O 1.597603 0.102215 -0.671939
C 1.186747 0.622577 -0.945687
O 1.529130 0.445660 -0.244634
C 0.871934 -0.129601 -0.966410
O 1.100126 0.194309 -0.271420
C 0.892092 -0.771767 -0.642526
O 0.706871 -0.093624 -0.260668
C 0.990502 -1.018897 0.088723
O 0.479711 -0.466730 -0.183682
C 0.926590 -0.961289 0.603808
O 0.288190 -0.703983 0.196085
C 0.472797 -0.529610 1.111355
O 0.317991 -1.003683 0.485824
C 0.832968 -0.204688 0.755497
O 0.075103 -0.021231 0.934339
C 0.648092 0.358805 1.104790
O 0.091432 -0.193784 1.262192
C 0.107495 0.168158 1.500345
O -0.361019 -0.480152 1.514101
C -0.359835 0.534690 1.266732
O -0.678663 -0.141253 1.552126
C -0.847025 0.970512 0.997832
O -0.886452 0.201472 1.214679
C -0.973953 0.889659 0.351873
O -1.210394 0.348871 0.891914
C -0.996137 1.352310 0.451446
O -1.548127 1.671207 -0.031888
C -0.369157 1.736745 0.110619
O -0.786915 2.346980 -0.194489
C -0.349351 1.195451 -0.391889
O -0.476937 0.499800 -0.018002
C 0.277041 0.766348 0.121213
O 0.347545 0.027310 0.419294
C 0.858701 0.809825 0.505382
O 0.687449 0.175745 0.048638
C 1.483256 0.683703 0.760534
O 1.234913 0.326466 0.089187
C 1.976930 0.110106 0.780161
O 1.685860 0.366098 0.080342
68

C -1.900150 0.200414 1.341984
O -1.524006 0.327857 0.647525
C -1.558902 -0.325477 1.546768
O -1.269601 0.143859 0.967088
C -1.130519 -0.893548 1.391279
O -0.916768 -0.154922 1.170502
C -0.602400 -1.258744 1.041174
O -0.694359 -0.493252 0.827715
C -0.464513 -1.451358 0.400224
O -0.287943 -0.728261 0.693401
C -0.644470 -1.115139 -0.204395
O -0.079699 -0.873353 0.308024
C -0.504566 -0.409984 -0.507700
O -0.735587 -0.678650 -1.224950
C -1.040942 0.208204 -0.912212
O -1.313185 0.792326 -1.386222
C -0.355318 0.134917 -0.887116
O -0.486077 0.151534 -0.098050
C -0.301501 0.234287 -1.449854
O -0.641625 -0.482392 -1.553234
C 0.014572 -0.488348 -1.673515
O 0.001417 -1.058196 -1.112178
C -0.231378 -0.494686 -2.131154
O -0.200379 -0.151681 -2.853225
C 0.600637 -0.785510 -2.047823
O 0.516352 -0.004279 -2.198071
C 1.325663 -0.774721 -1.656236
O 1.537840 -0.179472 -2.146806
C 1.497711 -0.339130 -1.436625
O 1.721996 -0.149405 -0.692514
C 1.553750 0.303199 -1.036477
O 1.602314 0.381455 -0.241796
C 1.064849 -0.189442 -1.007833
O 1.200148 0.240977 -0.347202
C 0.821970 -0.791153 -0.756327
O 0.808024 -0.146708 -0.282517
C 0.968901 -1.110299 -0.094980
O 0.522571 -0.451705 -0.178909
C 0.871863 -1.026039 0.573259
O 0.310262 -0.831848 0.037634
C 0.461468 -0.642753 1.117304
O 0.109140 -1.062199 0.534269
C 0.357517 0.086431 0.801951
O -0.320027 0.434192 1.046893
C 0.358553 0.537736 1.259690
O 0.059165 -0.166317 1.493517
C 0.131274 0.407207 2.079329
O -0.225725 -0.304306 1.999949
C -0.289943 0.689802 1.545160
O -0.518933 0.151601 2.090965
C -0.575195 1.018182 0.983489
O -0.798185 0.257259 1.089659
C -0.840538 1.041962 0.311772
O -1.070747 0.419894 0.759026
C -0.995817 1.582126 0.268742
O -1.763290 1.407693 0.125361
C -0.418315 1.516301 -0.024133
O -0.759192 2.229077 -0.149640
C -0.139068 1.245398 -0.619331
O -0.325043 0.508077 -0.370792
C 0.169767 0.680667 -0.150858
O 0.167507 0.075854 0.372779
C 0.637148 0.850663 0.359551
O 0.734285 0.141588 0.002092
C 1.192709 0.631187 0.843032
O 1.196619 0.386316 0.081440
C 1.765686 0.207073 1.044786
O 1.642231 0.387959 0.275345
68

C -2.002282 0.394959 1.280624
O -1.623637 0.618845 0.612415
C -1.654516 -0.301017 1.365282
O -1.303853 0.315782 0.995696
C -1.148626 -0.795740 1.309994
O -0.946833 -0.026781 1.220659
C -0.699597 -1.174437 0.922981
O -0.617069 -0.389668 1.054616
C -0.514795 -1.191171 0.222480
O -0.326590 -0.539497 0.646624
C -0.698641 -1.006716 -0.477050
O -0.202002 -0.652751 0.040695
C -0.718925 -0.566375 -0.468395
O -1.203754 -0.928564 -0.991616
C -0.889910 0.278578 -0.575893
O -0.603008 0.886727 -1.009300
C -0.250368 0.511500 -1.057733
O -0.230250 0.721683 -0.286099
C -0.350396 0.271213 -1.407842
O -0.332605 -0.502809 -1.206413
C -0.040366 -0.469312 -1.887846
O -0.248702 -0.942153 -1.277094
C 0.152403 -0.870308 -1.974076
O 0.470762 -0.557228 -2.637874
C 0.997932 -0.840439 -2.053002
O 0.628371 -0.136062 -1.967688
C 1.419893 -0.310441 -1.805945
O 1.471550 -0.094977 -2.574650
C 1.652545 -0.536455 -1.306617
O 1.987522 -0.374979 -0.598298
C 1.465130 0.100928 -1.040856
O 1.463718 0.151436 -0.242453
C 1.112321 -0.509237 -0.947364
O 1.097050 0.039929 -0.365828
C 0.753235 -1.050841 -0.596795
O 0.692880 -0.284896 -0.373892
C 0.781228 -1.402814 -0.160359
O 0.439486 -0.681124 -0.111617
C 0.842053 -1.121423 0.619658
O 0.091515 -1.265382 0.383081
C 0.701788 -0.861784 1.243580
O 0.190517 -1.311284 0.823400
C 0.171236 -0.292183 1.192690
O -0.249842 0.375140 1.324498
C 0.268858 0.111610 1.886830
O 0.324733 -0.645255 2.139881
C 0.067570 0.837729 2.254442
O -0.064219 0.096962 2.526280
C -0.247892 0.836166 1.572178
O -0.412082 0.346144 2.182849
C -0.514920 1.029971 0.878530
O -0.801218 0.299121 1.033102
C -0.788068 1.020832 0.209496
O -1.137658 0.594883 0.789457
C -1.233330 1.524884 0.104990
O -1.771735 0.979117 0.333591
C -0.699484 1.614372 -0.239689
O -0.876718 2.393702 -0.274807
C -0.166474 1.433481 -0.908666
O -0.432016 0.729631 -0.636485
C 0.109595 0.709768 -0.543652
O 0.290753 -0.043468 -0.344110
C 0.480824 1.023923 -0.017953
O 0.652613 0.285720 -0.273969
C 1.055453 0.933957 0.472702
O 1.066922 0.376095 -0.100585
C 1.584415 0.569909 0.917456
O 1.517508 0.262877 0.181756
68

C -1.759678 0.500384 1.398857
O -1.400822 0.551489 0.685688
C -1.554578 -0.170755 1.423806
O -1.167695 0.337955 0.942625
C -1.350160 -0.706639 1.162028
O -0.928547 -0.028716 1.110427
C -1.020319 -1.085860 0.644414
O -0.721793 -0.377457 0.865881
C -0.752408 -1.199482 0.063069
O -0.430109 -0.654749 0.552343
C -0.642366 -0.795076 -0.455234
O -0.200209 -0.652323 0.196010
C -0.590745 -0.497776 -0.152080
O -1.147858 -0.994658 -0.439714
C -0.929293 0.332204 -0.522204
O -0.251645 0.747524 -0.613320
C -0.621448 0.309380 -1.087381
O -0.311355 0.437749 -0.361183
C -0.439030 -0.090673 -1.689755
O 0.040293 -0.589094 -1.287479
C -0.073770 -0.963301 -2.057780
O -0.465485 -1.092163 -1.372248
C 0.608934 -0.816845 -2.178594
O 1.163565 -0.698293 -2.742802
C 1.328259 -0.734715 -2.164175
O 0.721013 -0.308752 -1.864497
C 1.642416 -0.044038 -2.215623
O 1.639276 -0.206106 -2.999028
C 1.353479 -0.553996 -1.363714
O 1.865819 -0.545915 -0.749350
C 1.599321 -0.056659 -0.914284
O 1.481250 0.344703 -0.232398
C 1.089036 -0.477076 -0.944261
O 1.036670 0.125278 -0.420403
C 0.723020 -0.853686 -0.508804
O 0.615784 -0.070668 -0.384778
C 0.666160 -1.077239 0.134696
O 0.410381 -0.403774 -0.213187
C 0.634927 -1.528041 0.728478
O -0.128561 -1.403835 0.524375
C 0.582388 -0.944164 1.222820
O -0.079878 -1.356427 1.045497
C 0.092555 -0.466250 1.369920
O 0.085564 0.325181 1.253350
C 0.270518 0.035488 2.012965
O 0.532168 -0.616302 2.395992
C 0.244533 0.608503 2.201137
O -0.042278 0.248554 2.855489
C -0.275573 0.531366 1.704687
O -0.294558 0.402324 2.493982
C -0.363810 1.009786 1.168812
O -0.729525 0.303851 1.079885
C -0.674795 1.327726 0.521340
O -0.987568 0.660390 0.832523
C -1.156383 1.452223 -0.036620
O -1.263236 0.888466 0.520840
C -1.145168 1.358792 -0.766570
O -1.057199 2.138874 -0.612510
C -0.402965 1.275751 -0.434837
O -1.083234 0.855986 -0.402721
C 0.099677 1.006848 -0.671397
O 0.197159 0.219216 -0.570734
C 0.620087 1.248881 -0.313390
O 0.616293 0.463116 -0.463585
C 1.025140 1.148909 0.307729
O 1.001475 0.494783 -0.152227
C 1.104754 0.812661 0.827905
O 1.352134 0.557165 0.111299
68

C -1.488183 0.397826 1.794244
O -1.454803 0.705971 1.056726
C -1.420908 -0.234707 1.542492
O -1.131923 0.354938 1.085538
C -1.447200 -0.804442 1.167244
O -0.941565 -0.189292 1.090280
C -1.198468 -1.082063 0.466398
O -0.748515 -0.643128 0.961250
C -0.862042 -1.125915 -0.050782
O -0.497388 -0.945603 0.638068
C -0.474190 -0.742226 -0.457276
O -0.261036 -0.951071 0.284984
C -0.585551 -0.173630 -0.309518
O -1.056317 -0.815391 -0.228757
C -1.247372 -0.107391 -0.821330
O -0.476818 0.046369 -0.670984
C -0.666722 -0.144492 -1.129581
O -0.084196 -0.176124 -0.582166
C -0.063958 -0.382729 -1.836036
O 0.658651 -0.491704 -1.510521
C 0.309627 -1.216731 -1.999465
O -0.368460 -1.266985 -1.577952
C 0.664084 -0.695456 -2.614365
O 1.144753 -0.758287 -3.250769
C 1.139725 -0.803403 -2.268170
O 0.485207 -0.638873 -1.838593
C 1.628411 -0.269875 -2.241142
O 1.646169 -0.673252 -2.931774
C 1.547204 -0.075184 -1.362192
O 2.017106 -0.381099 -0.791572
C 1.445875 0.141905 -0.894531
O 1.245900 0.475708 -0.195542
C 1.044542 -0.327723 -0.726858
O 0.969870 0.389489 -0.380403
C 0.701869 -0.571299 -0.312185
O 0.643088 0.226508 -0.319134
C 0.483634 -0.584113 0.504901
O 0.316480 0.102264 0.129473
C 0.368067 -1.446038 0.648487
O -0.416364 -1.326215 0.546947
C 0.539868 -0.857627 1.019554
O -0.228240 -1.074622 0.965494
C 0.094685 -0.265699 1.266452
O 0.573199 0.313409 0.991392
C 0.313081 0.200385 1.941967
O 0.598590 -0.402964 2.382937
C 0.064869 0.727965 2.027832
O -0.306252 0.604849 2.725766
C -0.369486 0.267740 1.611749
O -0.562867 0.585754 2.319896
C -0.176908 0.854146 1.221511
O -0.656960 0.251909 1.005038
C -0.491315 1.280344 0.737526
O -0.889431 0.660621 1.049690
C -0.760508 1.140514 0.219371
O -1.177356 0.951345 0.875460
C -0.950912 1.346002 -0.700238
O -0.799021 2.113688 -0.534140
C -0.417020 0.714274 -0.802229
O -1.210269 0.720117 -0.698677
C 0.080550 1.034694 -0.636380
O 0.226142 0.438778 -0.122875
C 0.528904 1.385699 -0.340832
O 0.596449 0.588558 -0.338979
C 0.853384 1.310280 0.347791
O 0.917107 0.718772 -0.187052
C 0.898225 0.925684 0.876744
O 1.143213 0.668845 0.159795
68

C -1.711322 0.497183 2.194398
O -1.240190 0.759793 1.603575
C -1.714694 -0.298600 1.841179
O -1.212836 0.242791 1.532900
C -1.687297 -0.816085 1.291563
O -1.099614 -0.273350 1.283415
C -1.515845 -1.134592 0.522898
O -1.054051 -0.701101 1.011603
C -1.090579 -1.097618 -0.087251
O -0.743426 -0.931439 0.614083
C -0.592895 -0.770081 -0.488065
O -0.402131 -1.015975 0.248919
C -0.666998 -0.353080 -0.671069
O -1.230604 -0.746627 -0.261839
C -0.923992 -0.228245 -1.507756
O -0.261509 -0.081533 -1.083973
C -0.359626 -0.402818 -1.559637
O 0.382812 -0.138153 -1.422755
C 0.234037 -0.261537 -2.131907
O 1.013704 -0.145457 -1.995360
C 0.229884 -1.245972 -1.952655
O -0.460836 -1.598464 -1.756044
C 0.533991 -1.155917 -2.615703
O 0.800233 -1.113694 -3.368917
C 1.232625 -0.521330 -2.143890
O 0.882636 -0.526350 -1.424528
C 1.625482 -0.230119 -2.008570
O 1.732615 -0.866260 -2.481695
C 1.498044 0.303027 -1.199179
O 1.852477 -0.244305 -0.735709
C 1.644459 0.302137 -0.730169
O 1.475905 0.700161 -0.056993
C 1.102518 -0.256938 -0.655661
O 1.009616 0.422732 -0.244059
C 0.680736 -0.608117 -0.329997
O 0.658249 0.187425 -0.248707
C 0.510343 -0.616724 0.454310
O 0.275087 -0.036535 -0.043722
C 0.457026 -1.292997 0.728758
O -0.322398 -1.112923 0.720317
C 0.570484 -0.756696 1.129808
O -0.169750 -1.058260 1.096447
C 0.355185 -0.195284 1.261009
O 1.105945 0.030981 1.102377
C 0.401677 0.460826 1.687372
O 0.617815 -0.150393 2.156088
C -0.114300 0.794437 2.187394
O -0.534481 0.910594 2.858180
C -0.599980 0.252969 1.985084
O -0.817074 0.895389 2.409545
C -0.289084 0.526152 1.224025
O -0.893707 0.005999 1.286243
C -0.633693 0.833991 0.686564
O -1.039854 0.381885 1.206788
C -1.113629 0.913318 0.105831
O -1.317109 0.641330 0.830136
C -1.083452 0.858772 -0.621306
O -0.750387 1.564996 -0.447196
C -0.342565 0.967510 -1.317876
O -1.075166 1.209950 -1.106880
C 0.135272 1.079881 -0.626985
O 0.205054 0.338797 -0.333855
C 0.583646 1.440014 -0.280999
O 0.585825 0.641629 -0.230249
C 1.004036 1.584310 0.125271
O 0.995854 0.834952 -0.154724
C 1.322500 1.466231 0.767968
O 1.349300 0.933407 0.171829
